124
Lattice="12.66565832686254 -0.002298327060188814 0.00834880377590093 -4.224032352002198 11.93626782835652 -0.005927311628687681 -4.2140114367360075 -5.969726805641839 10.344027844722934" Properties=species:S:1:pos:R:3 pbc="T T T"
V        0.01730178       0.00937397       0.01525842
V       -0.83150004      -1.18374592       2.07602662
V       10.99244440      -2.37575117       4.14509377
V       -6.73379247       8.36633800       6.19752164
V       -3.35746226      -4.76619439       8.27698964
V       -1.66813923       1.20111876       2.08018842
V       -2.51943688       0.01171473       4.14125496
V       -3.35733517      -1.18162170       6.20906628
V       -2.52508828       3.59469028       2.07586462
V       -3.36698029       2.40083333       4.13539807
V       -4.20847946       1.20774397       6.20106220
V       -5.05531916       0.01384673       8.27252992
V       -2.52313890       7.17797889       0.00580063
V       -3.37104651       5.98855125       2.07744924
V       -4.21157957       4.78722152       4.14249089
V       -5.05419649       3.59809197       6.20330915
V       -3.36897510       9.56186699       0.00099487
V        8.45065064       8.37100056       2.07811538
V        7.60992212       7.17384236       4.14389704
V       -5.89482190       5.97744167       6.20476769
V       -6.74403859       4.78875916       8.27289160
V       -5.90096414       2.40449817       8.27465568
V        1.70741294      -1.19355962       2.08044173
V       -3.36871029       9.55929942       4.13704989
V        0.01176732      -3.56958937       6.20932122
V       -0.83237013      -4.76166284       8.27930272
V        1.70345120       2.39306898       0.01570738
V        0.88303252       1.18560978       2.10795279
V        0.01376725       0.00402668       4.15540626
V       -0.83439691      -1.18292403       6.21213488
V       -1.67335409      -2.37451497       8.27683606
V        0.85713140       4.79040469       0.00485042
V        0.01800028       3.58488338       2.08068599
V       -0.83080705       2.39749272       4.14478766
V       -1.67246348       1.20847606       6.20585275
V       -2.50906869       0.01763864       8.27577664
V        0.01187441       7.18451378       0.00602437
V       -0.83638253       5.98308846       2.07017188
V       -1.67932413       4.78668260       4.13586836
V       -2.52163673       3.59313251       6.20601673
V       -3.35817714       2.41321736       8.27292015
V       -5.05134148       3.59768013      10.34559160
V       -1.68019695       8.36460195       2.06728798
V       -2.52553737       7.17397804       4.13683781
V       -3.37049140       5.97833245       6.20380527
V       -4.21011827       4.78705785       8.27472908
V        0.85565000      -5.95938161      10.35201119
V        0.00952035      10.75360284       2.06850783
V       -0.83350466       9.55425210       4.13662696
V       -1.68205067       8.36577115       6.20406490
V        1.69740643      -4.76147925       8.28158776
V        4.23095510       2.39816727       0.00788019
V        3.40172056       1.20176925       2.08089667
V        2.54547905       0.01095435       4.14428823
V        1.69760572      -1.18495237       6.21660714
V        0.85865765      -2.37626017       8.28082382
V        3.38237343       4.78691349       0.00266355
V        2.54621599       3.59136668       2.07698407
V        1.70807731       2.39933485       4.15584742
V        0.85606073       1.20555904       6.21243793
V        0.01242453       0.01311693       8.27890519
V        2.54466392       7.17574126       0.00554016
V        1.69542218       5.97974808       2.06946180
V        0.85646436       4.78425850       4.14219697
V        0.01050117       3.58767542       6.20633665
V       -0.83023319       2.39795941       8.27641856
V       -2.51985535       3.59269152      10.34651640
V        0.85282117       8.36832011       2.06820617
V        0.01008499       7.17321682       4.13941831
V       -0.83412528       5.97801815       6.20204567
V       -1.68723842       4.77540232       8.27341598
V        3.37616430      11.94047547       0.00705840
V        6.76430162      -1.18238250       2.07463372
V        1.69784464       9.56066409       4.13447653
V        4.23414841      -4.76166026       8.28006200
V        6.76138212       2.39560910       0.01324857
V        5.92349490       1.20617999       2.07417195
V        5.08409709       0.01227593       4.14298891
V        4.24855671      -1.19225878       6.23044219
V        5.91210401       4.78564424       0.00407765
V        5.07032264       3.59223192       2.07713616
V        4.23422583       2.39983131       4.14392943
V        3.39117421       1.20934294       6.21704364
V        2.54255979       0.01391166       8.28047940
V        5.06894627       7.17689656       0.00475396
V        4.22929907       5.97977060       2.07230826
V        3.38808169       4.78173959       4.13818532
V        2.54526054       3.59493576       6.21310026
V        1.69988421       2.39865732       8.27938166
V        4.22862816       9.55636118       0.00602740
V        3.38597373       8.36692709       2.06671304
V        2.53922486       7.17059233       4.13648522
V        1.70315089       5.97228671       6.21059470
V        0.85518794       4.77358190       8.27682744
V       10.13991491       0.00548229       0.01236354
V        9.29796174      -1.18031231       2.07634694
V        8.45647288      -2.37196278       4.14290127
V        7.60971837      -3.56828855       6.21311851
V        8.45088333       1.20466977       2.07763606
V        7.61095064       0.01087026       4.14627735
V        8.44874811       4.78789106       0.00380954
V        7.60084394       3.59176817       2.08534185
V        6.76501696       2.40035076       4.14418641
V        5.92255467       1.20885341       6.21083829
V        7.60531029       7.17933547       0.00456121
V        6.75218061       5.98750098       2.08219179
V        5.91957278       4.78419847       4.14340500
V        5.07828406       3.59302297       6.21073065
V        4.23549209       2.39765291       8.28174979
V        6.76085960       9.56311631       0.00363609
V        5.91851956       8.36780473       2.07280765
V        5.08197488       7.16850349       4.12851585
V        4.23813445       5.96954959       6.20538191
V        3.38988992       4.78326687       8.27832776
Cr      -0.74625409       2.33667924       0.11219096
Cr      -4.19370471      -2.37493284       8.27671842
Cr      -1.67684447       4.79479879       0.01177843
Cr       2.55024024       7.15871593       8.27874161
Cr       9.29111501       2.39229918       0.01980860
Ti       5.08402991      -3.57540958       6.21879174
Ti       3.39411189      -2.38049774       8.28909937
Ti       6.77455749      -1.18539946       6.21917175
Ti       5.89816743      -2.35800343       8.25100709
Ti       5.08463125       0.00958028       8.28952696
