127
Lattice="12.13407612154073 -0.002448297464165054 0.003365587388845699 -0.0024481550187637523 12.149112329652313 -0.004020308910634898 0.003365621958249256 -0.0040202511867883746 12.142100690539106" Properties=species:S:1:pos:R:3 pbc="T T T"
Cr       0.01199044       3.01437117       9.09291866
Cr       1.51880941      10.64392106      10.60633908
Cr       7.61175999       1.51666658      10.60521763
Cr      10.62059357       1.55434944       4.54187202
Cr       9.11458441      -0.00029759       9.15202871
Cr       9.04227101       6.06784966       6.00903498
Ti       0.00367942       0.03763666       6.05488514
Ti       4.54567354      10.66983092      10.61909154
Ti       7.61759837       1.50335414       7.59257968
Ti       7.65263825       4.51526884       7.52407385
Ti       6.13302569       9.09151040       0.00999437
Ti      10.59890547       1.49308341       1.40387045
Ti       9.05155172       3.02456133       3.03985221
Ti      10.59864855       4.62501383       4.61357308
Ti       9.11722813       6.02083928      -0.01346403
Ti      10.66253934       7.39385221       7.57332823
Ti       9.05634865       9.10389661       9.15040086
V        0.02426353      -0.04472060      -0.10315551
V        1.40745248       1.58259763       1.41124101
V       -0.10561434       0.08782159       3.08608258
V        1.50496848       1.69323358       4.64212749
V        1.51701529       1.56782975       7.67125752
V        0.01149320       0.01637922       9.11231061
V        1.45649563       1.51687745      10.56877707
V        0.00791775       3.06424012      -0.02589545
V        1.49416219       4.57737774       1.50817079
V       -0.02346206       3.02954549       3.02795994
V        1.51101586       4.57199665       4.59068757
V        0.03412400       3.00003449       6.09760263
V        1.52137492       4.52134687       7.60624191
V       -0.00056738       6.08970958       0.00686576
V        1.55640563       7.56905324       1.45484695
V       -0.00761503       6.08747312       2.97962815
V        1.59669694       7.52483806       4.64676557
V        0.14965829       6.02786720       6.09350700
V        1.52685913       7.56099621       7.60533960
V        0.04328050       6.00949380       9.13771288
V        1.55269828       7.59430199      10.63662543
V        0.00297538       9.13132612      -0.03342739
V        1.54270803      10.58863236       1.31659934
V        1.62138161      10.52439114       4.79184894
V        0.08920816       9.10485399       6.10090530
V        1.56678908      10.60817748       7.62996135
V        2.96480367       0.02260588      -0.04723433
V        4.60170255       1.56293582       1.44608951
V        4.62397498       1.59084650       4.63525502
V        3.06664490      -0.00549974       6.17748691
V        4.54517306       1.51676574       7.61839953
V        2.97247099      -0.00822020       9.09833681
V        4.52203131       1.47903682      10.62753454
V        3.03119229       3.01849716      -0.02638999
V        4.54703274       4.55280493       1.51856696
V        4.58152235       4.56794252       4.57320458
V        4.58787994       7.59509154       4.54222534
V        4.54920356       4.50291330       7.58843751
V        3.06135116       3.00942469       9.09437313
V        4.54262078       4.51612023      10.61132085
V        3.02944751       6.08355352      -0.01645273
V        4.52765928       7.60003618       1.55097544
V        3.05279260       6.04850647       6.11758984
V        3.04274849       6.05588780       9.10510079
V        4.49472372       7.59095705      10.61843607
V        2.99964484       9.10583429      -0.00499186
V        4.53619792      10.59997668       1.45858183
V        3.08898180       9.09441483       3.04983208
V        4.62876812      10.53469186       4.63284515
V        3.07079215       9.07813060       6.11388486
V        4.55419990      10.63955648       7.63301551
V        3.02224521       9.10782817       9.12475694
V        6.10781663       0.04730843       0.01243501
V        7.54575198       1.48476100       1.48952768
V        6.07453505       0.00586421       3.01368367
V        7.51087461       1.50402097       4.57514984
V        6.01636918      -0.03105104       6.05342845
V        6.09460595       0.08417851       9.16755392
V        6.06053536       3.01418572      -0.01064325
V        7.49983127       4.55050484       1.54713794
V        6.10212294       3.04464232       3.03120503
V        7.60148628       4.59878192       4.59230228
V        5.99005562       3.02976607       5.99974771
V        6.01349091       2.97786018       9.18175821
V        7.56331021       4.48491047      10.57861796
V        7.59674254       7.60772209       1.59897814
V        6.09463273       6.08063875       3.05942760
V        7.53982794       7.53584764       4.50733309
V        6.02763526       6.06378400       6.02741680
V        7.58475566       7.40498799       7.53882870
V        6.05110007       6.01435859       9.10159396
V        7.52536251       7.51639549      10.55727514
V        7.59384405      10.67019023       1.52576695
V        6.05983237       9.11399019       3.02015182
V        7.47922886      10.70710726       4.45086689
V        6.06201778       9.11602006       6.06956936
V        7.53820203      10.82869723       7.67434490
V        6.12589181       9.09345879       9.08582310
V        7.61051364      10.72759059      10.61417041
V        9.01109838       0.02405247      -0.06479204
V        9.04453916       0.01849775       3.02457260
V        9.14503515       0.06144598       6.01777695
V       10.61529133       1.54499811       7.68913491
V       10.61029971       1.50440472      10.57662731
V        9.02497413       3.03304621      -0.06463808
V       10.70584828       4.53353204       1.51988764
V        9.22810817       2.87187600       5.95950049
V       10.68113197       4.46569273       7.61929260
V        9.14164275       2.99498229       9.20394093
V       10.66365730       4.44987237      10.56769969
V       10.59966625       7.60004380       1.45769260
V        9.06416115       6.09621276       2.95599841
V       10.55084764       7.38605433       4.57144673
V        9.10859423       6.03738861       9.22110896
V       10.71016342       7.58222834      10.64149752
V        9.10225911       9.12782012       0.00819615
V       10.53887919      10.73195137       1.41999061
V        9.04131597       9.14811299       2.96304298
V       10.49397931      10.80735576       4.43839704
V       10.64118673      10.80223280       7.74027157
V       10.58254539      10.69733852      10.63271048
W        1.52426956       4.52790180      10.61336809
W        0.02679794       9.13551801       9.13448908
W        3.04079712       3.05378185       3.03113058
W        3.04246269       6.09133157       3.04892143
W        4.56548246       7.58201749       7.59943035
W        6.05157722       6.07342617       0.00089813
Zr       0.00094445       9.16868532       3.08466933
Zr       2.96253172      -0.03225092       3.08818554
Zr       9.13299536       9.19116561       6.04434151
